tests/data/power_flow/automatic-tap-regulator/single-trafo-any-valid-tap/sym_output.json
{
  "version": "1.0",
  "type": "sym_output",
  "is_batch": false,
  "attributes": {},
  "data": {
    "node": [
      {"id": 2, "energized": 1, "u_pu": 0.9999994899030393, "u": 9999.994899030393, "u_angle": -4.976309478422389e-08, "p": 1002.726233800649, "q": 5026.135759975151},
      {"id": 4, "energized": 1, "u_pu": 0.9948984008982722, "u": 397.9593603593089, "u_angle": -2.618491503137831, "p": -999.9999999998167, "q": -5000.000000000037}
    ],
    "transformer": [
      {"id": 3, "energized": 1, "loading": 0.05125182979919158, "p_from": 1002.726233800649, "q_from": 5026.135759975151, "i_from": 0.2959027282493237, "s_from": 5125.182979919158, "p_to": -999.9999999998167, "q_to": -5000.000000000037, "i_to": 7.397540005386348, "s_to": 5099.019513592785}
    ],
    "sym_load": [
      {"id": 5, "energized": 1, "p": 1000, "q": 5000, "i": 7.397540005386347, "s": 5099.019513592785, "pf": 0.196116135138184}
    ],
    "source": [
      {"id": 1, "energized": 1, "p": 1002.726233846283, "q": 5026.135758488603, "i": 0.295902728165672, "s": 5125.182978470267, "pf": 0.1956469140825818}
    ],
    "transformer_tap_regulator": [
      {"id": 7, "energized": 1, "tap_pos": 0}
    ]
  }
}